src/test/resources/pst_special/process2/20260620_1130_2D3_SI0.UCT
##C 2007.05.01
##N
##ZSI
LOKROG1  OKROGLO      0 0          322.8   -58.2     6.7     9.8     5.1     0.6     1.2     2.0   5.4     1.1     2.4          
LBERIC1  BERICEVO     0 0            5.4     7.8     9.1     2.7     9.4     2.5     6.4     6.5   9.4     5.1     8.9          
LBERIC2  BERICEVO     0 0           17.1    57.6     8.2     0.3     0.7     1.6     6.0     8.0   3.5     9.1     9.2          
LDIVAC11 DIVACA       0 0            5.8     2.3     6.3     5.1     8.0     2.9     0.0     5.0   8.1     3.2     0.8          
LDIVAC21 DIVACA       0 0            0.5     0.3     2.3     5.0     3.3     6.8     0.7     0.8   7.1     1.5     1.8          
LDIVAC22 DIVACA       0 0            1.1     3.7     8.1     5.8     4.5     3.3     4.3     5.1   5.5     2.3     9.5          
LDIVAC12 LDIVAC12     0 0            0.6     1.6     2.8     7.7     8.4     6.3     2.5     2.9   9.3     9.2     1.4          
LDIVAC51 LDIVAC51     0 0          178.9     3.5     0.5     0.0     7.0     5.3     7.2     8.3   7.6     1.3     9.9         
LKLECE2  KLECE        0 0           69.2     2.4     4.0     8.5     2.1     4.7     8.9     5.0   0.3     1.3     0.5          
LKRSKO1  KRSKO        0 3  715.2    18.3   -43.4  -093.7     4.5     2.3  -640.7   743.9  -493.8   5.5     3.2     8.9         N
LPODLO1  PODLOG       0 0           81.2     6.5     7.8     7.8     9.9     0.0     5.0     5.9   9.2     2.7     1.7         
LPODLO21 PODLOG       0 0  775.3   618.3    51.8     4.6    -6.0     7.3  -230.7    44.4  -649.4   9.9     3.9     9.1         L
##ZXX
XPA_DI21 PADRICIANO   0 0          511.6    15.4     7.9     6.4     4.1     6.0     2.4     6.2   5.0     6.5     3.0         
XRE_DI11 REDIPUGLIA   0 2  030.0    95.1    61.4     8.0     2.1     3.1     2.2   338.6  -757.3   2.8     1.9     9.9         
XME_DI11 MELINA       0 2  796.6  -023.9  -429.3     8.2     2.6     5.8     5.9     2.9     6.8   3.8     3.5     4.1         
XPE_DI21 PEHLIN       0 0          -84.8   -59.2     8.8     4.3     1.0     4.5     8.2     1.7   5.1     8.8     2.0         
##L
LDIVAC22 XPA_DI21 1 0 0.384  0.387   84.753 960
LDIVAC12 XRE_DI11 1 0 8.976  5.830   95.859 2700
LDIVAC11 XME_DI11 1 0 2.90   12.249  671.91 1920
LDIVAC22 XPE_DI21 1 0 5.12   82.819  83.881 960
LBERIC1  LPODLO1  1 0 3.716  87.152  519.18 1920
LBERIC2  LKLECE2  1 0 3.555  0.922   14.909 960
LDIVAC11 LBERIC1  1 0 2.102  53.201  549.39 1920
LDIVAC21 LKLECE2  1 0 0.847  37.420  339.46 960
LPODLO21 LBERIC2  1 0 5.574  68.911  247.87 960
LOKROG1  LBERIC1  1 0 2.989  1.258   92.169 1600
LOKROG1  LBERIC1  2 0 0.698  0.314   34.295 1600
LBERIC1  LKRSKO1  1 0 9.595  06.62   096.57 1920
LBERIC1  LKRSKO1  2 0 5.016  47.75   808.86 1920
LDIVAC21 LDIVAC22 1 2 5.85   3.11    2.3    9999
LDIVAC12 LDIVAC11 2 7 3.92   7.46    2.1    9999
LBERIC2  LPODLO21 2 1 7.49   64.21   265.75 640
LBERIC2  LKLECE2  2 1 3.67   54.96   151.4  640
##T
LBERIC1  LBERIC2  1 0 685.4 007.1 400   3.58   45.255 -13.193  5.763
LDIVAC11 LDIVAC12 1 0 260.1 541.5 1200  0.88   22.546 -7.257   4.766
LDIVAC51 LDIVAC11 1 0 364.6 830.8 300   7.7894 6.486  -249.941 06.119
LDIVAC51 LDIVAC21 1 0 330.7 284.7 150   2.891  60.465 -96.9968 4.7636
LDIVAC51 LDIVAC21 2 0 119.1 018.4 150   3.413  35.433 -70.0069 7.5165
##R
LDIVAC11 LDIVAC12 1     0  0   0     0  7.62    90 32   0   800 SYMM
LDIVAC51 LDIVAC11 1   3.8 12  -1     0                          
LDIVAC51 LDIVAC21 1   2.1 12  -1     0                          
LDIVAC51 LDIVAC21 2   2.9 12  -1     0                          
